test/data/three_phase/kersting_example_4_2/node.glm
/////////////////////////////////////////////
// BEGIN
/////////////////////////////////////////////



clock {
	timezone EST+8EDT;
	timestamp '2000-01-01 0:00:00';
	stoptime '2000-01-01 0:00:01';
}

module powerflow;

// object voltdump {
//     filename voltage.csv;
// 	mode RECT;
// }

object line_configuration:6 { 
     conductor_A underground_line_conductor:2; 
     conductor_B underground_line_conductor:2; 
     conductor_C underground_line_conductor:2;
     spacing line_spacing:5; 
} 

object underground_line_conductor:2 { 
     //name 1000 AAC (Conc); 
     outer_diameter 1.29 in; 
     conductor_gmr 0.0171 ft; 
     conductor_diameter 0.567 in; 
     conductor_resistance 0.41; 
     neutral_gmr 0.00208 ft; 
     neutral_resistance 14.8722; 
     neutral_diameter 0.0641 in; 
     neutral_strands 13.0; 
     // No insulation_relative_permitivitty right now
     // Additionally, assuming no shielding
} 

object line_spacing:5 { 
     distance_AB 6.0 in; 
     distance_BC 6.0 in; 
     distance_AC 12.0 in;
} 

// object transformer_configuration:400 {
//     connect_type 1;
//     power_rating 6000;
//     powerA_rating 2000;
//     powerB_rating 2000;
//     powerC_rating 2000;
//     primary_voltage 12470;
//     secondary_voltage 4160;
//     resistance 0.01;
//     reactance 0.06;
// }

object node {
    name node1;
    phases "ABC";
    voltage_A +7199.558+0.000j;
    voltage_B -3599.779-6235.000j;
    voltage_C -3599.779+6235.000j;
    nominal_voltage 7200;
    bustype SWING;
    // object recorder {
    //     file node1_voltages.csv;
    //     interval 60;
    //     property voltage_A, voltage_B, voltage_C;
    // };
}

object underground_line:14 {
    name line14;
    phases ABC;
    from node1;
    to load4;
    length 2000;
    configuration line_configuration:6;
}

// object node {
//     name node2;
//     phases "ABCN";
//     voltage_A +7199.558+0.000j;
//     voltage_B -3599.779-6235.000j;
//     voltage_C -3599.779+6235.000j;
//     nominal_voltage 7200;
//     // object recorder {
//     //     file node2_voltages.csv;
//     //     interval 60;
//     //     property voltage_A, voltage_B, voltage_C;
//     // };
// }

// object transformer:23 {
//     phases "ABCN";
//     from node2;
//     to node3;
//     configuration transformer_configuration:400;
// }

// object node {
//     name node3;
//     phases "ABCN";
//     voltage_A +2401.777+0.000j;
//     voltage_B -1200.889-2080.000j;
//     voltage_C -1200.889+2080.000j;
//     nominal_voltage 2400;
//     // object recorder {
//     //     file node3_voltages.csv;
//     //     interval 60;
//     //     property voltage_A, voltage_B, voltage_C;
//     // };
// }

// object underground_line:34 {
//     name line34;
//     phases ABCN;
//     from node3;
//     to load4;
//     length 2500;
//     configuration line_configuration:6;
// }

object load {
    name load4;
    phases "ABC";
    constant_power_A +1800000.000+871779.789j;
    constant_power_B +1800000.000+871779.789j;
    constant_power_C +1800000.000+871779.789j;
    nominal_voltage 7200;
    // object recorder {
    //     file load4_voltages.csv;
    //     interval 60;
    //     property measured_voltage_A, measured_voltage_B, measured_voltage_C;
    // };
}


///////////////////////////////
// END
///////////////////////////////


object voltdump {
     filename result.csv;
     mode RECT;
}
